OFF-00000-00
     RDKit          3D

  8  7  0  0  0  0  0  0  0  0999 V2000
    0.8056   -0.5417    0.4964 C   0  0  0  0  0  0  0  0  0  0  0  0
    2.1643   -0.0482   -0.0152 C   0  0  0  0  0  0  0  0  0  0  0  0
   -0.0197   -0.0095    0.0109 H   0  0  0  0  0  0  0  0  0  0  0  0
    0.6709   -1.6110    0.2999 H   0  0  0  0  0  0  0  0  0  0  0  0
    0.7079   -0.3889    1.5768 H   0  0  0  0  0  0  0  0  0  0  0  0
    2.9895   -0.5805    0.4702 H   0  0  0  0  0  0  0  0  0  0  0  0
    2.2990    1.0211    0.1814 H   0  0  0  0  0  0  0  0  0  0  0  0
    2.2620   -0.2009   -1.0956 H   0  0  0  0  0  0  0  0  0  0  0  0
  1  2  1  0
  1  3  1  0
  1  4  1  0
  1  5  1  0
  2  6  1  0
  2  7  1  0
  2  8  1  0
M  END
>  <group_name>  (1) 
OFF

>  <molecule_index>  (1) 
00000

>  <conformer_index>  (1) 
00

>  <method>  (1) 
b3lyp-d3bj

>  <basis>  (1) 
dzvp

>  <program>  (1) 
psi4

>  <initial_energy>  (1) 
-50102.6128542826 kilocalorie / mole

>  <final_energy>  (1) 
-50102.925303378965 kilocalorie / mole
